# This is the CMakeCache file.
# For build in directory: /gpfs/alpine/cfd142/scratch/tchatte3/codes_rebase/amr-wind/build-gcc
# It was generated by CMake: /autofs/nccs-svm1_sw/summit/.swci/0-core/opt/spack/20180914/linux-rhel7-ppc64le/gcc-4.8.5/cmake-3.15.2-xit2o3iepxvqbyku77lwcugufilztu7t/bin/cmake
# You can edit this file to change values found and used by cmake.
# If you do not want to change any of the values, simply exit the editor.
# If you do want to change a value, simply edit, save, and exit the editor.
# The syntax for the file is as follows:
# KEY:TYPE=VALUE
# KEY is the name of a variable in the cache.
# TYPE is a hint to GUIs for the type of VALUE, DO NOT EDIT TYPE!.
# VALUE is the current value for the KEY.

########################
# EXTERNAL cache entries
########################

//Value Computed by CMake
AMR-Wind_BINARY_DIR:STATIC=/gpfs/alpine/cfd142/scratch/tchatte3/codes_rebase/amr-wind/build-gcc

//Value Computed by CMake
AMR-Wind_SOURCE_DIR:STATIC=/gpfs/alpine/cfd142/scratch/tchatte3/codes_rebase/amr-wind

//User defined build date and time. Set ONLY for reproducibly built
// binary distributions
AMREX_BUILD_DATETIME:STRING=

//Show most warnings for most compilers
AMR_WIND_ENABLE_ALL_WARNINGS:BOOL=ON

//Compile with clang-tidy static analysis
AMR_WIND_ENABLE_CLANG_TIDY:BOOL=OFF

//Enable cppcheck static analysis target
AMR_WIND_ENABLE_CPPCHECK:BOOL=OFF

//Enable CUDA
AMR_WIND_ENABLE_CUDA:BOOL=ON

//Enable Intel OneAPI DPC++
AMR_WIND_ENABLE_DPCPP:BOOL=OFF

//Enable building fcompare when not testing
AMR_WIND_ENABLE_FCOMPARE:BOOL=ON

//Enable HIP/ROCm
AMR_WIND_ENABLE_HIP:BOOL=OFF

//Enable HYPRE integration
AMR_WIND_ENABLE_HYPRE:BOOL=ON

//Enable MASA library
AMR_WIND_ENABLE_MASA:BOOL=OFF

//Enable MPI
AMR_WIND_ENABLE_MPI:BOOL=ON

//Enable NetCDF library
AMR_WIND_ENABLE_NETCDF:BOOL=ON

//Enable OpenFAST integration
AMR_WIND_ENABLE_OPENFAST:BOOL=ON

//Enable OpenMP
AMR_WIND_ENABLE_OPENMP:BOOL=OFF

//Enable testing suite
AMR_WIND_ENABLE_TESTS:BOOL=ON

//Enable AMReX TinyProfile support
AMR_WIND_ENABLE_TINY_PROFILE:BOOL=ON

//Enable unit testing
AMR_WIND_ENABLE_UNIT_TESTS:BOOL=ON

//Treat compiler warnings as errors
AMR_WIND_ENABLE_WERROR:BOOL=OFF

//Git version for AMR-Wind
AMR_WIND_HAVE_GIT_INFO:BOOL=ON

//Provide a directory in which to save golds during testing
AMR_WIND_SAVE_GOLDS:BOOL=OFF

//Check test plots against gold files
AMR_WIND_TEST_WITH_FCOMPARE:BOOL=ON

//Add AMReX as subproject
AMR_WIND_USE_INTERNAL_AMREX:BOOL=ON

//Value Computed by CMake
AMReX-PlotfileTools_BINARY_DIR:STATIC=/gpfs/alpine/cfd142/scratch/tchatte3/codes_rebase/amr-wind/build-gcc/submods/amrex/Tools/Plotfile

//Value Computed by CMake
AMReX-PlotfileTools_SOURCE_DIR:STATIC=/gpfs/alpine/cfd142/scratch/tchatte3/codes_rebase/amr-wind/submods/amrex/Tools/Plotfile

//Value Computed by CMake
AMReX_BINARY_DIR:STATIC=/gpfs/alpine/cfd142/scratch/tchatte3/codes_rebase/amr-wind/build-gcc/submods/amrex

//Enable bound checking in Array4 class
AMReX_BOUND_CHECK:BOOL=OFF

//CUDA architecture (Use 'Auto' for automatic detection)
AMReX_CUDA_ARCH:STRING=Volta

//Generate host function symbol names (better cuda-memcheck)
AMReX_CUDA_BACKTRACE:BOOL=OFF

//Generate CSV table with time for each compilation phase
AMReX_CUDA_COMPILATION_TIMER:BOOL=OFF

//Generate debug information for device code (optimizations: off)
AMReX_CUDA_DEBUG:BOOL=OFF

//Error if a CUDA host function is called from a host device funtion
AMReX_CUDA_ERROR_CROSS_EXECUTION_SPACE_CALL:BOOL=OFF

//Enable CUDA fastmath
AMReX_CUDA_FASTMATH:BOOL=ON

//Keep intermediately generated files (folder: nvcc_tmp)
AMReX_CUDA_KEEP_FILES:BOOL=OFF

//Limit the maximum number of registers available
AMReX_CUDA_MAXREGCOUNT:STRING=255

//Maximum number of CUDA threads per block
AMReX_CUDA_MAX_THREADS:STRING=256

//Verbose code generation statistics in ptxas
AMReX_CUDA_PTX_VERBOSE:BOOL=OFF

//Generate source information in PTX (optimizations: on)
AMReX_CUDA_SHOW_CODELINES:BOOL=OFF

//Generate line-number information (optimizations: on)
AMReX_CUDA_SHOW_LINENUMBERS:BOOL=OFF

//Allow an application to use a different compiler than the one
// used to build AMReX
AMReX_DIFFERENT_COMPILER:BOOL=OFF

//Build with Embedded Boundary support
AMReX_EB:BOOL=OFF

//Enable CTest suite for AMReX
AMReX_ENABLE_TESTS:BOOL=OFF

//AMReX GPU type
AMReX_GPU_BACKEND:STRING=CUDA

//Enable HDF5-based I/O
AMReX_HDF5:BOOL=OFF

//Enable Hypre interfaces
AMReX_HYPRE:BOOL=ON

//Generate Install Targets
AMReX_INSTALL:BOOL=ON

//Enable interprocedural optimization (IPO/LTO)
AMReX_IPO:BOOL=OFF

//whether to initialize MPI so that multiple threads can make MPI
// calls at the same time
AMReX_MPI_THREAD_MULTIPLE:BOOL=OFF

//Precision of reals in particle classes: <SINGLE,DOUBLE>
AMReX_PARTICLES_PRECISION:STRING=DOUBLE

//Enable PETSc interfaces
AMReX_PETSC:BOOL=OFF

//Precision of AMReX build: <SINGLE,DOUBLE>
AMReX_PRECISION:STRING=DOUBLE

//Enable support for probin file
AMReX_PROBINIT:BOOL=ON

//Value Computed by CMake
AMReX_SOURCE_DIR:STATIC=/gpfs/alpine/cfd142/scratch/tchatte3/codes_rebase/amr-wind/submods/amrex

//Dimension of AMReX build: <1,2,3>
AMReX_SPACEDIM:STRING=3

//Enable tiny profiling
AMReX_TINY_PROFILE:BOOL=ON

//Third-party profiling options: <CRAYPAT,FORGE,VTUNE>
AMReX_TP_PROFILE:STRING=IGNORE

//Builds the googlemock subproject
BUILD_GMOCK:BOOL=ON

//Build AMReX shared library
BUILD_SHARED_LIBS:BOOL=OFF

//Build the testing tree.
BUILD_TESTING:BOOL=ON

//Path to a program.
BZRCOMMAND:FILEPATH=BZRCOMMAND-NOTFOUND

//Path to a program.
CMAKE_AR:FILEPATH=/usr/bin/ar

//Choose the type of build, options are: None Debug Release RelWithDebInfo
// MinSizeRel ...
CMAKE_BUILD_TYPE:STRING=RELEASE

//Enable/Disable color output during build.
CMAKE_COLOR_MAKEFILE:BOOL=ON

//CUDA compiler
CMAKE_CUDA_COMPILER:FILEPATH=/sw/summit/cuda/10.2.89/bin/nvcc

//Flags used by the CUDA compiler during all build types.
CMAKE_CUDA_FLAGS:STRING=

//Flags used by the CUDA compiler during DEBUG builds.
CMAKE_CUDA_FLAGS_DEBUG:STRING=-g

//Flags used by the CUDA compiler during MINSIZEREL builds.
CMAKE_CUDA_FLAGS_MINSIZEREL:STRING=-O1 -DNDEBUG

//Flags used by the CUDA compiler during RELEASE builds.
CMAKE_CUDA_FLAGS_RELEASE:STRING=-O3 -DNDEBUG

//Flags used by the CUDA compiler during RELWITHDEBINFO builds.
CMAKE_CUDA_FLAGS_RELWITHDEBINFO:STRING=-O2 -g -DNDEBUG

//CXX compiler
CMAKE_CXX_COMPILER:FILEPATH=/sw/summit/gcc/7.4.0/bin/g++

//A wrapper around 'ar' adding the appropriate '--plugin' option
// for the GCC compiler
CMAKE_CXX_COMPILER_AR:FILEPATH=/sw/summit/gcc/7.4.0/bin/gcc-ar

//A wrapper around 'ranlib' adding the appropriate '--plugin' option
// for the GCC compiler
CMAKE_CXX_COMPILER_RANLIB:FILEPATH=/sw/summit/gcc/7.4.0/bin/gcc-ranlib

//Flags used by the CXX compiler during all build types.
CMAKE_CXX_FLAGS:STRING=

//Flags used by the CXX compiler during DEBUG builds.
CMAKE_CXX_FLAGS_DEBUG:STRING=-g

//Flags used by the CXX compiler during MINSIZEREL builds.
CMAKE_CXX_FLAGS_MINSIZEREL:STRING=-Os -DNDEBUG

//Flags used by the CXX compiler during RELEASE builds.
CMAKE_CXX_FLAGS_RELEASE:STRING=-O3 -DNDEBUG

//Flags used by the CXX compiler during RELWITHDEBINFO builds.
CMAKE_CXX_FLAGS_RELWITHDEBINFO:STRING=-O2 -g -DNDEBUG

//C compiler
CMAKE_C_COMPILER:FILEPATH=/sw/summit/gcc/7.4.0/bin/gcc

//A wrapper around 'ar' adding the appropriate '--plugin' option
// for the GCC compiler
CMAKE_C_COMPILER_AR:FILEPATH=/sw/summit/gcc/7.4.0/bin/gcc-ar

//A wrapper around 'ranlib' adding the appropriate '--plugin' option
// for the GCC compiler
CMAKE_C_COMPILER_RANLIB:FILEPATH=/sw/summit/gcc/7.4.0/bin/gcc-ranlib

//Flags used by the C compiler during all build types.
CMAKE_C_FLAGS:STRING=

//Flags used by the C compiler during DEBUG builds.
CMAKE_C_FLAGS_DEBUG:STRING=-g

//Flags used by the C compiler during MINSIZEREL builds.
CMAKE_C_FLAGS_MINSIZEREL:STRING=-Os -DNDEBUG

//Flags used by the C compiler during RELEASE builds.
CMAKE_C_FLAGS_RELEASE:STRING=-O3 -DNDEBUG

//Flags used by the C compiler during RELWITHDEBINFO builds.
CMAKE_C_FLAGS_RELWITHDEBINFO:STRING=-O2 -g -DNDEBUG

//Flags used by the linker during all build types.
CMAKE_EXE_LINKER_FLAGS:STRING=

//Flags used by the linker during DEBUG builds.
CMAKE_EXE_LINKER_FLAGS_DEBUG:STRING=

//Flags used by the linker during MINSIZEREL builds.
CMAKE_EXE_LINKER_FLAGS_MINSIZEREL:STRING=

//Flags used by the linker during RELEASE builds.
CMAKE_EXE_LINKER_FLAGS_RELEASE:STRING=

//Flags used by the linker during RELWITHDEBINFO builds.
CMAKE_EXE_LINKER_FLAGS_RELWITHDEBINFO:STRING=

//Fortran compiler
CMAKE_Fortran_COMPILER:FILEPATH=/sw/summit/gcc/7.4.0/bin/gfortran

//A wrapper around 'ar' adding the appropriate '--plugin' option
// for the GCC compiler
CMAKE_Fortran_COMPILER_AR:FILEPATH=/sw/summit/gcc/7.4.0/bin/gcc-ar

//A wrapper around 'ranlib' adding the appropriate '--plugin' option
// for the GCC compiler
CMAKE_Fortran_COMPILER_RANLIB:FILEPATH=/sw/summit/gcc/7.4.0/bin/gcc-ranlib

//Flags used by the Fortran compiler during all build types.
CMAKE_Fortran_FLAGS:STRING=

//Flags used by the Fortran compiler during DEBUG builds.
CMAKE_Fortran_FLAGS_DEBUG:STRING=-g

//Flags used by the Fortran compiler during MINSIZEREL builds.
CMAKE_Fortran_FLAGS_MINSIZEREL:STRING=-Os -DNDEBUG -Os

//Flags used by the Fortran compiler during RELEASE builds.
CMAKE_Fortran_FLAGS_RELEASE:STRING=-O3 -DNDEBUG -O3

//Flags used by the Fortran compiler during RELWITHDEBINFO builds.
CMAKE_Fortran_FLAGS_RELWITHDEBINFO:STRING=-O2 -g -DNDEBUG

//User executables (bin)
CMAKE_INSTALL_BINDIR:PATH=bin

//Read-only architecture-independent data (DATAROOTDIR)
CMAKE_INSTALL_DATADIR:PATH=

//Read-only architecture-independent data root (share)
CMAKE_INSTALL_DATAROOTDIR:PATH=share

//Documentation root (DATAROOTDIR/doc/PROJECT_NAME)
CMAKE_INSTALL_DOCDIR:PATH=

//C header files (include)
CMAKE_INSTALL_INCLUDEDIR:PATH=include

//Info documentation (DATAROOTDIR/info)
CMAKE_INSTALL_INFODIR:PATH=

//Object code libraries (lib64)
CMAKE_INSTALL_LIBDIR:PATH=lib64

//Program executables (libexec)
CMAKE_INSTALL_LIBEXECDIR:PATH=libexec

//Locale-dependent data (DATAROOTDIR/locale)
CMAKE_INSTALL_LOCALEDIR:PATH=

//Modifiable single-machine data (var)
CMAKE_INSTALL_LOCALSTATEDIR:PATH=var

//Man documentation (DATAROOTDIR/man)
CMAKE_INSTALL_MANDIR:PATH=

//C header files for non-gcc (/usr/include)
CMAKE_INSTALL_OLDINCLUDEDIR:PATH=/usr/include

//Install path prefix, prepended onto install directories.
CMAKE_INSTALL_PREFIX:PATH=/gpfs/alpine/cfd142/proj-shared/tanmoy/codes/amr-wind-tinyprof

//Run-time variable data (LOCALSTATEDIR/run)
CMAKE_INSTALL_RUNSTATEDIR:PATH=

//System admin executables (sbin)
CMAKE_INSTALL_SBINDIR:PATH=sbin

//Modifiable architecture-independent data (com)
CMAKE_INSTALL_SHAREDSTATEDIR:PATH=com

//Read-only single-machine data (etc)
CMAKE_INSTALL_SYSCONFDIR:PATH=etc

//Path to a program.
CMAKE_LINKER:FILEPATH=/sw/summit/xalt/1.2.1/bin/ld

//Path to a program.
CMAKE_MAKE_PROGRAM:FILEPATH=/usr/bin/gmake

//Flags used by the linker during the creation of modules during
// all build types.
CMAKE_MODULE_LINKER_FLAGS:STRING=

//Flags used by the linker during the creation of modules during
// DEBUG builds.
CMAKE_MODULE_LINKER_FLAGS_DEBUG:STRING=

//Flags used by the linker during the creation of modules during
// MINSIZEREL builds.
CMAKE_MODULE_LINKER_FLAGS_MINSIZEREL:STRING=

//Flags used by the linker during the creation of modules during
// RELEASE builds.
CMAKE_MODULE_LINKER_FLAGS_RELEASE:STRING=

//Flags used by the linker during the creation of modules during
// RELWITHDEBINFO builds.
CMAKE_MODULE_LINKER_FLAGS_RELWITHDEBINFO:STRING=

//Path to a program.
CMAKE_NM:FILEPATH=/usr/bin/nm

//Path to a program.
CMAKE_OBJCOPY:FILEPATH=/usr/bin/objcopy

//Path to a program.
CMAKE_OBJDUMP:FILEPATH=/usr/bin/objdump

//Value Computed by CMake
CMAKE_PROJECT_DESCRIPTION:STATIC=

//Value Computed by CMake
CMAKE_PROJECT_HOMEPAGE_URL:STATIC=

//Value Computed by CMake
CMAKE_PROJECT_NAME:STATIC=AMR-Wind

//Value Computed by CMake
CMAKE_PROJECT_VERSION:STATIC=21.5

//Value Computed by CMake
CMAKE_PROJECT_VERSION_MAJOR:STATIC=21

//Value Computed by CMake
CMAKE_PROJECT_VERSION_MINOR:STATIC=5

//Value Computed by CMake
CMAKE_PROJECT_VERSION_PATCH:STATIC=

//Value Computed by CMake
CMAKE_PROJECT_VERSION_TWEAK:STATIC=

//Path to a program.
CMAKE_RANLIB:FILEPATH=/usr/bin/ranlib

//Flags used by the linker during the creation of shared libraries
// during all build types.
CMAKE_SHARED_LINKER_FLAGS:STRING=

//Flags used by the linker during the creation of shared libraries
// during DEBUG builds.
CMAKE_SHARED_LINKER_FLAGS_DEBUG:STRING=

//Flags used by the linker during the creation of shared libraries
// during MINSIZEREL builds.
CMAKE_SHARED_LINKER_FLAGS_MINSIZEREL:STRING=

//Flags used by the linker during the creation of shared libraries
// during RELEASE builds.
CMAKE_SHARED_LINKER_FLAGS_RELEASE:STRING=

//Flags used by the linker during the creation of shared libraries
// during RELWITHDEBINFO builds.
CMAKE_SHARED_LINKER_FLAGS_RELWITHDEBINFO:STRING=

//If set, runtime paths are not added when installing shared libraries,
// but are added when building.
CMAKE_SKIP_INSTALL_RPATH:BOOL=NO

//If set, runtime paths are not added when using shared libraries.
CMAKE_SKIP_RPATH:BOOL=NO

//Flags used by the linker during the creation of static libraries
// during all build types.
CMAKE_STATIC_LINKER_FLAGS:STRING=

//Flags used by the linker during the creation of static libraries
// during DEBUG builds.
CMAKE_STATIC_LINKER_FLAGS_DEBUG:STRING=

//Flags used by the linker during the creation of static libraries
// during MINSIZEREL builds.
CMAKE_STATIC_LINKER_FLAGS_MINSIZEREL:STRING=

//Flags used by the linker during the creation of static libraries
// during RELEASE builds.
CMAKE_STATIC_LINKER_FLAGS_RELEASE:STRING=

//Flags used by the linker during the creation of static libraries
// during RELWITHDEBINFO builds.
CMAKE_STATIC_LINKER_FLAGS_RELWITHDEBINFO:STRING=

//Path to a program.
CMAKE_STRIP:FILEPATH=/usr/bin/strip

//If this value is on, makefiles will be generated without the
// .SILENT directive, and all commands will be echoed to the console
// during the make.  This is useful for debugging only. With Visual
// Studio IDE projects all commands are done without /nologo.
CMAKE_VERBOSE_MAKEFILE:BOOL=FALSE

//Path to the coverage program that CTest uses for performing coverage
// inspection
COVERAGE_COMMAND:FILEPATH=/sw/summit/gcc/7.4.0/bin/gcov

//Extra command line flags to pass to the coverage tool
COVERAGE_EXTRA_FLAGS:STRING=-l

//How many times to retry timed-out CTest submissions.
CTEST_SUBMIT_RETRY_COUNT:STRING=3

//How long to wait between timed-out CTest submissions.
CTEST_SUBMIT_RETRY_DELAY:STRING=5

//Forward unknown NVCC flags to the host compiler
CUDA_FORWARD_UNKNOWN_FLAGS_HOST:BOOL=ON

//Path to a program.
CVSCOMMAND:FILEPATH=/usr/bin/cvs

//Options passed to the cvs update command.
CVS_UPDATE_OPTIONS:STRING=-d -A -P

//Maximum time allowed before CTest will kill the test.
DART_TESTING_TIMEOUT:STRING=1500

//Path to a program.
GITCOMMAND:FILEPATH=/autofs/nccs-svm1_sw/summit/.swci/0-core/opt/spack/20180914/linux-rhel7-ppc64le/gcc-4.8.5/git-2.20.1-6zhngdgjqjq4qhp5lxfz6czu3qc2b5lh/bin/git

//Git command line client
GIT_EXECUTABLE:FILEPATH=/autofs/nccs-svm1_sw/summit/.swci/0-core/opt/spack/20180914/linux-rhel7-ppc64le/gcc-4.8.5/git-2.20.1-6zhngdgjqjq4qhp5lxfz6czu3qc2b5lh/bin/git

//Number of GPUs per node
GPUS_PER_NODE:STRING=IGNORE

//Number of GPUs per socket
GPUS_PER_SOCKET:STRING=IGNORE

//Path to a program.
HGCOMMAND:FILEPATH=HGCOMMAND-NOTFOUND

//Path to a file.
HYPRE_INCLUDE_DIRS:PATH=/autofs/nccs-svm1_proj/cfd142/exawind/exawind-2020-07/spack/opt/spack/linux-rhel7-power9le/gcc-7.4.0/hypre-develop-ydklha66jpcx2pnabc7dswv4ikrz67mo/include

//Path to a library.
HYPRE_LIBRARIES:FILEPATH=/autofs/nccs-svm1_proj/cfd142/exawind/exawind-2020-07/spack/opt/spack/linux-rhel7-power9le/gcc-7.4.0/hypre-develop-ydklha66jpcx2pnabc7dswv4ikrz67mo/lib/libHYPRE.so

//No help, variable specified on the command line.
HYPRE_ROOT:UNINITIALIZED=/autofs/nccs-svm1_proj/cfd142/exawind/exawind-2020-07/spack/opt/spack/linux-rhel7-power9le/gcc-7.4.0/hypre-develop-ydklha66jpcx2pnabc7dswv4ikrz67mo

//Enable installation of googletest. (Projects embedding googletest
// may want to turn this OFF.)
INSTALL_GTEST:BOOL=ON

//Path to a library.
LIBNVTOOLSEXT:FILEPATH=/sw/summit/cuda/10.2.89/targets/ppc64le-linux/lib/libnvToolsExt.so

//Command to build the project
MAKECOMMAND:STRING=/autofs/nccs-svm1_sw/summit/.swci/0-core/opt/spack/20180914/linux-rhel7-ppc64le/gcc-4.8.5/cmake-3.15.2-xit2o3iepxvqbyku77lwcugufilztu7t/bin/cmake --build . --config "${CTEST_CONFIGURATION_TYPE}"

//No help, variable specified on the command line.
MASA_DIR:PATH=

//Path to the memory checking command, used for memory error detection.
MEMORYCHECK_COMMAND:FILEPATH=MEMORYCHECK_COMMAND-NOTFOUND

//File that contains suppressions for the memory checker
MEMORYCHECK_SUPPRESSIONS_FILE:FILEPATH=

//Executable for running MPI programs.
MPIEXEC_EXECUTABLE:FILEPATH=/sw/summit/xalt/1.2.1/bin/jsrun --smpiargs="-gpu"

//Maximum number of processors available to run MPI applications.
MPIEXEC_MAX_NUMPROCS:STRING=1

//Flag used by MPI to specify the number of processes for mpiexec;
// the next option will be the number of processes.
MPIEXEC_NUMPROC_FLAG:STRING=-n

//These flags will be placed after all flags passed to mpiexec.
MPIEXEC_POSTFLAGS:STRING=

//These flags will be directly before the executable that is being
// run by mpiexec.
MPIEXEC_PREFLAGS:STRING=-a 1 -c 1 -g 1

//MPI CXX additional include directories
MPI_CXX_ADDITIONAL_INCLUDE_DIRS:STRING=

//MPI compiler for CXX
MPI_CXX_COMPILER:FILEPATH=/autofs/nccs-svm1_sw/summit/.swci/1-compute/opt/spack/20180914/linux-rhel7-ppc64le/gcc-7.4.0/spectrum-mpi-10.3.1.2-20200121-eu2wh5ypz6ipvokwbng2m5ihug6doysh/bin/mpicxx

//MPI CXX compilation definitions
MPI_CXX_COMPILE_DEFINITIONS:STRING=

//MPI CXX compilation options
MPI_CXX_COMPILE_OPTIONS:STRING=-pthread

//Path to a file.
MPI_CXX_HEADER_DIR:PATH=/autofs/nccs-svm1_sw/summit/.swci/1-compute/opt/spack/20180914/linux-rhel7-ppc64le/gcc-7.4.0/spectrum-mpi-10.3.1.2-20200121-eu2wh5ypz6ipvokwbng2m5ihug6doysh/include

//MPI CXX libraries to link against
MPI_CXX_LIB_NAMES:STRING=mpiprofilesupport;mpi_ibm

//MPI CXX linker flags
MPI_CXX_LINK_FLAGS:STRING=-pthread

//If true, the MPI-2 C++ bindings are disabled using definitions.
MPI_CXX_SKIP_MPICXX:BOOL=FALSE

//MPI C additional include directories
MPI_C_ADDITIONAL_INCLUDE_DIRS:STRING=

//MPI compiler for C
MPI_C_COMPILER:FILEPATH=/autofs/nccs-svm1_sw/summit/.swci/1-compute/opt/spack/20180914/linux-rhel7-ppc64le/gcc-7.4.0/spectrum-mpi-10.3.1.2-20200121-eu2wh5ypz6ipvokwbng2m5ihug6doysh/bin/mpicc

//MPI C compilation definitions
MPI_C_COMPILE_DEFINITIONS:STRING=

//MPI C compilation options
MPI_C_COMPILE_OPTIONS:STRING=-pthread

//Path to a file.
MPI_C_HEADER_DIR:PATH=/autofs/nccs-svm1_sw/summit/.swci/1-compute/opt/spack/20180914/linux-rhel7-ppc64le/gcc-7.4.0/spectrum-mpi-10.3.1.2-20200121-eu2wh5ypz6ipvokwbng2m5ihug6doysh/include

//MPI C libraries to link against
MPI_C_LIB_NAMES:STRING=mpiprofilesupport;mpi_ibm

//MPI C linker flags
MPI_C_LINK_FLAGS:STRING=-pthread

//MPI Fortran additional include directories
MPI_Fortran_ADDITIONAL_INCLUDE_DIRS:STRING=

//MPI compiler for Fortran
MPI_Fortran_COMPILER:FILEPATH=/autofs/nccs-svm1_sw/summit/.swci/1-compute/opt/spack/20180914/linux-rhel7-ppc64le/gcc-7.4.0/spectrum-mpi-10.3.1.2-20200121-eu2wh5ypz6ipvokwbng2m5ihug6doysh/bin/mpif90

//MPI Fortran compilation definitions
MPI_Fortran_COMPILE_DEFINITIONS:STRING=

//MPI Fortran compilation options
MPI_Fortran_COMPILE_OPTIONS:STRING=-pthread

//Path to a file.
MPI_Fortran_F77_HEADER_DIR:PATH=/autofs/nccs-svm1_sw/summit/.swci/1-compute/opt/spack/20180914/linux-rhel7-ppc64le/gcc-7.4.0/spectrum-mpi-10.3.1.2-20200121-eu2wh5ypz6ipvokwbng2m5ihug6doysh/include

//MPI Fortran libraries to link against
MPI_Fortran_LIB_NAMES:STRING=mpiprofilesupport;mpi_ibm_usempi;mpi_ibm_mpifh;mpi_ibm

//MPI Fortran linker flags
MPI_Fortran_LINK_FLAGS:STRING=-pthread

//Path to a file.
MPI_Fortran_MODULE_DIR:PATH=/autofs/nccs-svm1_sw/summit/.swci/1-compute/opt/spack/20180914/linux-rhel7-ppc64le/gcc-7.4.0/spectrum-mpi-10.3.1.2-20200121-eu2wh5ypz6ipvokwbng2m5ihug6doysh/lib

//Location of the mpi_ibm library for MPI
MPI_mpi_ibm_LIBRARY:FILEPATH=/autofs/nccs-svm1_sw/summit/.swci/1-compute/opt/spack/20180914/linux-rhel7-ppc64le/gcc-7.4.0/spectrum-mpi-10.3.1.2-20200121-eu2wh5ypz6ipvokwbng2m5ihug6doysh/lib/libmpi_ibm.so

//Location of the mpi_ibm_mpifh library for MPI
MPI_mpi_ibm_mpifh_LIBRARY:FILEPATH=/autofs/nccs-svm1_sw/summit/.swci/1-compute/opt/spack/20180914/linux-rhel7-ppc64le/gcc-7.4.0/spectrum-mpi-10.3.1.2-20200121-eu2wh5ypz6ipvokwbng2m5ihug6doysh/lib/libmpi_ibm_mpifh.so

//Location of the mpi_ibm_usempi library for MPI
MPI_mpi_ibm_usempi_LIBRARY:FILEPATH=/autofs/nccs-svm1_sw/summit/.swci/1-compute/opt/spack/20180914/linux-rhel7-ppc64le/gcc-7.4.0/spectrum-mpi-10.3.1.2-20200121-eu2wh5ypz6ipvokwbng2m5ihug6doysh/lib/libmpi_ibm_usempi.so

//Location of the mpiprofilesupport library for MPI
MPI_mpiprofilesupport_LIBRARY:FILEPATH=/autofs/nccs-svm1_sw/summit/.swci/1-compute/opt/spack/20180914/linux-rhel7-ppc64le/gcc-7.4.0/spectrum-mpi-10.3.1.2-20200121-eu2wh5ypz6ipvokwbng2m5ihug6doysh/lib/libmpiprofilesupport.so

//No help, variable specified on the command line.
NETCDF_DIR:PATH=/autofs/nccs-svm1_proj/cfd142/exawind/exawind-2020-07/spack/opt/spack/linux-rhel7-power9le/gcc-7.4.0/netcdf-c-4.7.3-toy5urxedl22tu7qpd3f7hq54n233sbd

//The directory containing a CMake configuration file for OpenFAST.
OpenFAST_DIR:PATH=/ccs/proj/cfd142/exawind/exawind-2020-07/install/gcc/openfast/lib/cmake/OpenFAST

//No help, variable specified on the command line.
OpenFAST_ROOT:UNINITIALIZED=/ccs/proj/cfd142/exawind/exawind-2020-07/install/gcc/openfast

//Path to a program.
P4COMMAND:FILEPATH=P4COMMAND-NOTFOUND

//pkg-config executable
PKG_CONFIG_EXECUTABLE:FILEPATH=/usr/bin/pkg-config

//Path to a program.
ProcessorCount_cmd_nproc:FILEPATH=/usr/bin/nproc

//Path to a program.
ProcessorCount_cmd_sysctl:FILEPATH=/usr/sbin/sysctl

//Path to a program.
Python_EXECUTABLE:FILEPATH=/usr/bin/python2.7

//Name of the computer/site where compile is being run
SITE:STRING=login4

//Path to the SLURM sbatch executable
SLURM_SBATCH_COMMAND:FILEPATH=/usr/bin/sbatch

//Path to the SLURM srun executable
SLURM_SRUN_COMMAND:FILEPATH=/usr/bin/srun

//Path to a program.
SVNCOMMAND:FILEPATH=/usr/bin/svn

//Value Computed by CMake
gmock_BINARY_DIR:STATIC=/gpfs/alpine/cfd142/scratch/tchatte3/codes_rebase/amr-wind/build-gcc/submods/googletest/googlemock

//Dependencies for the target
gmock_LIB_DEPENDS:STATIC=general;gtest;

//Value Computed by CMake
gmock_SOURCE_DIR:STATIC=/gpfs/alpine/cfd142/scratch/tchatte3/codes_rebase/amr-wind/submods/googletest/googlemock

//Build all of Google Mock's own tests.
gmock_build_tests:BOOL=OFF

//Dependencies for the target
gmock_main_LIB_DEPENDS:STATIC=general;gmock;

//Value Computed by CMake
googletest-distribution_BINARY_DIR:STATIC=/gpfs/alpine/cfd142/scratch/tchatte3/codes_rebase/amr-wind/build-gcc/submods/googletest

//Value Computed by CMake
googletest-distribution_SOURCE_DIR:STATIC=/gpfs/alpine/cfd142/scratch/tchatte3/codes_rebase/amr-wind/submods/googletest

//Value Computed by CMake
gtest_BINARY_DIR:STATIC=/gpfs/alpine/cfd142/scratch/tchatte3/codes_rebase/amr-wind/build-gcc/submods/googletest/googletest

//Value Computed by CMake
gtest_SOURCE_DIR:STATIC=/gpfs/alpine/cfd142/scratch/tchatte3/codes_rebase/amr-wind/submods/googletest/googletest

//Build gtest's sample programs.
gtest_build_samples:BOOL=OFF

//Build all of gtest's own tests.
gtest_build_tests:BOOL=OFF

//Disable uses of pthreads in gtest.
gtest_disable_pthreads:BOOL=OFF

//Use shared (DLL) run-time lib even when Google Test is built
// as static lib.
gtest_force_shared_crt:BOOL=OFF

//Build gtest with internal symbols hidden in shared libraries.
gtest_hide_internal_symbols:BOOL=OFF

//Dependencies for the target
gtest_main_LIB_DEPENDS:STATIC=general;gtest;

//The directory containing a CMake configuration file for netCDF.
netCDF_DIR:PATH=netCDF_DIR-NOTFOUND

//Path to a library.
pkgcfg_lib__NetCDF_netcdf:FILEPATH=/autofs/nccs-svm1_proj/cfd142/exawind/exawind-2020-07/spack/opt/spack/linux-rhel7-power9le/gcc-7.4.0/netcdf-c-4.7.3-toy5urxedl22tu7qpd3f7hq54n233sbd/lib/libnetcdf.so


########################
# INTERNAL cache entries
########################

//Full path and name of AMReX_buildInfo.cpp.in
AMREX_BUILDINFO_IFILE:INTERNAL=/gpfs/alpine/cfd142/scratch/tchatte3/codes_rebase/amr-wind/submods/amrex/Tools/CMake/AMReX_buildInfo.cpp.in
AMREX_CMAKE_MODULES_PATH:INTERNAL=/gpfs/alpine/cfd142/scratch/tchatte3/codes_rebase/amr-wind/submods/amrex/Tools/CMake
//Path to AMReX' C_scripts dir
AMREX_C_SCRIPTS_DIR:INTERNAL=/gpfs/alpine/cfd142/scratch/tchatte3/codes_rebase/amr-wind/submods/amrex/Tools/C_scripts
AMREX_GIT_VERSION:INTERNAL=21.05-20-gfb0c16e34b93
AMREX_PKG_VERSION:INTERNAL=21.05
//Top level AMReX directory
AMREX_TOP_DIR:INTERNAL=/gpfs/alpine/cfd142/scratch/tchatte3/codes_rebase/amr-wind/submods/amrex
//Build data services
AMReX_AMRDATA:INTERNAL=OFF
//Enable Ascent support
AMReX_ASCENT:INTERNAL=OFF
//Enable communicator-profiling
AMReX_COMM_PROFILE:INTERNAL=OFF
//Build Fortran API
AMReX_FORTRAN_INTERFACES:INTERNAL=OFF
//STRINGS property for variable: AMReX_GPU_BACKEND
AMReX_GPU_BACKEND-STRINGS:INTERNAL=NONE;SYCL;CUDA;HIP
//STRINGS property for variable: AMReX_PARTICLES_PRECISION
AMReX_PARTICLES_PRECISION-STRINGS:INTERNAL=SINGLE;DOUBLE
//STRINGS property for variable: AMReX_PRECISION
AMReX_PRECISION-STRINGS:INTERNAL=SINGLE;DOUBLE
//Enable profile parser
AMReX_PROFPARSER:INTERNAL=OFF
//STRINGS property for variable: AMReX_SPACEDIM
AMReX_SPACEDIM-STRINGS:INTERNAL=1;2;3
//STRINGS property for variable: AMReX_TP_PROFILE
AMReX_TP_PROFILE-STRINGS:INTERNAL=IGNORE;CRAYPAT;FORGE;VTUNE
//Enable trace-profiling
AMReX_TRACE_PROFILE:INTERNAL=OFF
//ADVANCED property for variable: BZRCOMMAND
BZRCOMMAND-ADVANCED:INTERNAL=1
//ADVANCED property for variable: CMAKE_AR
CMAKE_AR-ADVANCED:INTERNAL=1
//This is the directory where this CMakeCache.txt was created
CMAKE_CACHEFILE_DIR:INTERNAL=/gpfs/alpine/cfd142/scratch/tchatte3/codes_rebase/amr-wind/build-gcc
//Major version of cmake used to create the current loaded cache
CMAKE_CACHE_MAJOR_VERSION:INTERNAL=3
//Minor version of cmake used to create the current loaded cache
CMAKE_CACHE_MINOR_VERSION:INTERNAL=15
//Patch version of cmake used to create the current loaded cache
CMAKE_CACHE_PATCH_VERSION:INTERNAL=2
//ADVANCED property for variable: CMAKE_COLOR_MAKEFILE
CMAKE_COLOR_MAKEFILE-ADVANCED:INTERNAL=1
//Path to CMake executable.
CMAKE_COMMAND:INTERNAL=/autofs/nccs-svm1_sw/summit/.swci/0-core/opt/spack/20180914/linux-rhel7-ppc64le/gcc-4.8.5/cmake-3.15.2-xit2o3iepxvqbyku77lwcugufilztu7t/bin/cmake
//Path to cpack program executable.
CMAKE_CPACK_COMMAND:INTERNAL=/autofs/nccs-svm1_sw/summit/.swci/0-core/opt/spack/20180914/linux-rhel7-ppc64le/gcc-4.8.5/cmake-3.15.2-xit2o3iepxvqbyku77lwcugufilztu7t/bin/cpack
//ADVANCED property for variable: CMAKE_CTEST_COMMAND
CMAKE_CTEST_COMMAND-ADVANCED:INTERNAL=1
//Path to ctest program executable.
CMAKE_CTEST_COMMAND:INTERNAL=/autofs/nccs-svm1_sw/summit/.swci/0-core/opt/spack/20180914/linux-rhel7-ppc64le/gcc-4.8.5/cmake-3.15.2-xit2o3iepxvqbyku77lwcugufilztu7t/bin/ctest
//ADVANCED property for variable: CMAKE_CUDA_COMPILER
CMAKE_CUDA_COMPILER-ADVANCED:INTERNAL=1
//ADVANCED property for variable: CMAKE_CUDA_FLAGS
CMAKE_CUDA_FLAGS-ADVANCED:INTERNAL=1
//ADVANCED property for variable: CMAKE_CUDA_FLAGS_DEBUG
CMAKE_CUDA_FLAGS_DEBUG-ADVANCED:INTERNAL=1
//ADVANCED property for variable: CMAKE_CUDA_FLAGS_MINSIZEREL
CMAKE_CUDA_FLAGS_MINSIZEREL-ADVANCED:INTERNAL=1
//ADVANCED property for variable: CMAKE_CUDA_FLAGS_RELEASE
CMAKE_CUDA_FLAGS_RELEASE-ADVANCED:INTERNAL=1
//ADVANCED property for variable: CMAKE_CUDA_FLAGS_RELWITHDEBINFO
CMAKE_CUDA_FLAGS_RELWITHDEBINFO-ADVANCED:INTERNAL=1
//ADVANCED property for variable: CMAKE_CXX_COMPILER
CMAKE_CXX_COMPILER-ADVANCED:INTERNAL=1
//ADVANCED property for variable: CMAKE_CXX_COMPILER_AR
CMAKE_CXX_COMPILER_AR-ADVANCED:INTERNAL=1
//ADVANCED property for variable: CMAKE_CXX_COMPILER_RANLIB
CMAKE_CXX_COMPILER_RANLIB-ADVANCED:INTERNAL=1
//ADVANCED property for variable: CMAKE_CXX_FLAGS
CMAKE_CXX_FLAGS-ADVANCED:INTERNAL=1
//ADVANCED property for variable: CMAKE_CXX_FLAGS_DEBUG
CMAKE_CXX_FLAGS_DEBUG-ADVANCED:INTERNAL=1
//ADVANCED property for variable: CMAKE_CXX_FLAGS_MINSIZEREL
CMAKE_CXX_FLAGS_MINSIZEREL-ADVANCED:INTERNAL=1
//ADVANCED property for variable: CMAKE_CXX_FLAGS_RELEASE
CMAKE_CXX_FLAGS_RELEASE-ADVANCED:INTERNAL=1
//ADVANCED property for variable: CMAKE_CXX_FLAGS_RELWITHDEBINFO
CMAKE_CXX_FLAGS_RELWITHDEBINFO-ADVANCED:INTERNAL=1
//ADVANCED property for variable: CMAKE_C_COMPILER
CMAKE_C_COMPILER-ADVANCED:INTERNAL=1
//ADVANCED property for variable: CMAKE_C_COMPILER_AR
CMAKE_C_COMPILER_AR-ADVANCED:INTERNAL=1
//ADVANCED property for variable: CMAKE_C_COMPILER_RANLIB
CMAKE_C_COMPILER_RANLIB-ADVANCED:INTERNAL=1
//ADVANCED property for variable: CMAKE_C_FLAGS
CMAKE_C_FLAGS-ADVANCED:INTERNAL=1
//ADVANCED property for variable: CMAKE_C_FLAGS_DEBUG
CMAKE_C_FLAGS_DEBUG-ADVANCED:INTERNAL=1
//ADVANCED property for variable: CMAKE_C_FLAGS_MINSIZEREL
CMAKE_C_FLAGS_MINSIZEREL-ADVANCED:INTERNAL=1
//ADVANCED property for variable: CMAKE_C_FLAGS_RELEASE
CMAKE_C_FLAGS_RELEASE-ADVANCED:INTERNAL=1
//ADVANCED property for variable: CMAKE_C_FLAGS_RELWITHDEBINFO
CMAKE_C_FLAGS_RELWITHDEBINFO-ADVANCED:INTERNAL=1
//Path to cache edit program executable.
CMAKE_EDIT_COMMAND:INTERNAL=/autofs/nccs-svm1_sw/summit/.swci/0-core/opt/spack/20180914/linux-rhel7-ppc64le/gcc-4.8.5/cmake-3.15.2-xit2o3iepxvqbyku77lwcugufilztu7t/bin/ccmake
//Executable file format
CMAKE_EXECUTABLE_FORMAT:INTERNAL=ELF